I"ò/Users/nicholaspaolino/Desktop/Flatiron%20School/Labs/rails-dynamic-request-readme-web-091817/app/assets/javascripts/application.js?type=application/javascript&pipeline=debug&id=37a258cd3e14bb3c865e2f77a462dafed0a83e643c89cb699a889328fda54732:ET