I"Ö/Users/nicholaspaolino/Desktop/Flatiron%20School/Labs/rails-dynamic-request-readme-web-091817/app/assets/stylesheets/application.css?type=text/css&id=36b2baef5502754cb03bd7c2089c7278ed8a6c3aa258221409a7c20a7967eb63:ET