I"å/Users/nicholaspaolino/Desktop/Flatiron%20School/Labs/rails-dynamic-request-readme-web-091817/app/assets/stylesheets/application.css?type=text/css&pipeline=debug&id=a8b182ac922fc2a0e72fc12e35e5736d1885501f91fc115d9d7d84b72262d98f:ET