I"ä/Users/nicholaspaolino/Desktop/Flatiron%20School/Labs/rails-dynamic-request-readme-web-091817/app/assets/stylesheets/application.css?type=text/css&pipeline=self&id=f5250a57e907a3c0e3317785d70b127f55164286a9c2d70e2702712f326788de:ET