I"ã/Users/nicholaspaolino/Desktop/Flatiron%20School/Labs/rails-dynamic-request-readme-web-091817/app/assets/javascripts/application.js?type=application/javascript&id=7f3e0ed0bf4a4f0867f0576320e1595bdf67c50690172aa5c5b85b94bf226134:ET