I"Ö/Users/nicholaspaolino/Desktop/Flatiron%20School/Labs/rails-dynamic-request-readme-web-091817/app/assets/stylesheets/application.css?type=text/css&id=d36c549f9547c53fd7cf074aab9081595e23278e1b2f9284a7af5f9742cc3d11:ET