I"ñ/Users/nicholaspaolino/Desktop/Flatiron%20School/Labs/rails-dynamic-request-readme-web-091817/app/assets/javascripts/application.js?type=application/javascript&pipeline=self&id=69706be301f7d471c0262553953b063ef95d2b436256fffd8f45f7340b1c981b:ET